<routes>
    <!-- Vehicle Types with colors and increased speeds -->
    <vType id="car" vClass="passenger" accel="3.0" decel="5.0" sigma="0.5" length="5.0" maxSpeed="30.0" color="0,0,255"/>
    <vType id="bus" vClass="bus" accel="2.0" decel="4.0" sigma="0.5" length="12.0" maxSpeed="20.0" color="255,0,0"/>
    <vType id="truck" vClass="truck" accel="2.0" decel="4.0" sigma="0.5" length="10.0" maxSpeed="20.0" color="0,255,0"/>
    <vType id="ambulance" vClass="emergency" accel="4.0" decel="6.0" sigma="0.5" length="5.0" maxSpeed="35.0" color="255,255,0"/>

    <!-- Define routes -->
    <route id="route_WE" edges="W-E W-E-1"/>
    <route id="route_EW" edges="E-W E-W-1"/>
</routes>









